@<TRIPOS>MOLECULE
dps1.pdb
 25 26 0 0 0
SMALL
GASTEIGER

@<TRIPOS>ATOM
      1  H1         4.8920    0.1020    3.1610 H       1  DPS1        0.0637
      2  C1         5.2700    0.5360    2.4010 C.ar    1  DPS1       -0.0365
      3  C2         6.6400    0.5940    2.1870 C.ar    1  DPS1       -0.0599
      4  C3         4.4280    1.2470    1.5660 C.ar    1  DPS1        0.0936
      5  H2         7.2320    0.1410    2.7910 H       1  DPS1        0.0618
      6  C4         7.1450    1.3390    1.1490 C.ar    1  DPS1       -0.0616
      7  C5         4.9310    1.9990    0.5120 C.ar    1  DPS1       -0.0365
      8  S1         2.6810    1.1940    1.8420 S.O2    1  DPS1        0.0251
      9  H3         8.0940    1.4020    0.9980 H       1  DPS1        0.0618
     10  C6         6.2960    2.0280    0.3080 C.ar    1  DPS1       -0.0599
     11  H4         4.3370    2.4590   -0.0670 H       1  DPS1        0.0637
     12  C7         2.1000   -0.0080    0.6860 C.ar    1  DPS1        0.0936
     13  O1         2.1430    2.4730    1.4740 O.2     1  DPS1       -0.1643
     14  O2         2.4500    0.6910    3.1690 O.2     1  DPS1       -0.1643
     15  C8         2.0220   -1.3370    1.0730 C.ar    1  DPS1       -0.0365
     16  C9         1.7690    0.3850   -0.6030 C.ar    1  DPS1       -0.0365
     17  H5         2.2690   -1.5820    1.8720 H       1  DPS1        0.0637
     18  C10        1.5900   -2.2760    0.1520 C.ar    1  DPS1       -0.0599
     19  H6         1.8250    1.2840   -0.8630 H       1  DPS1        0.0637
     20  C11        1.3470   -0.5720   -1.5020 C.ar    1  DPS1       -0.0599
     21  H7         1.5930   -3.1630    0.3920 H       1  DPS1        0.0618
     22  C12        1.2560   -1.8910   -1.1210 C.ar    1  DPS1       -0.0616
     23  H8         1.1540   -0.3210   -2.4550 H       1  DPS1        0.0618
     24  H9         0.9110   -2.4820   -1.7150 H       1  DPS1        0.0618
     25  H10        6.6210    2.5130   -0.3810 H       1  DPS1        0.0618
@<TRIPOS>BOND
     1    23    20    1
     2    24    22    1
     3    20    22   ar
     4    20    16   ar
     5    22    18   ar
     6    19    16    1
     7    16    12   ar
     8    25    10    1
     9    11     7    1
    10    18    21    1
    11    18    15   ar
    12    10     7   ar
    13    10     6   ar
    14     7     4   ar
    15    12    15   ar
    16    12     8    1
    17     9     6    1
    18    15    17    1
    19     6     3   ar
    20    13     8    2
    21     4     8    1
    22     4     2   ar
    23     8    14    2
    24     3     2   ar
    25     3     5    1
    26     2     1    1
